Version8/Distrib/Examples/ADiakoptics/EPRI_Ckt7-G/Torn_Circuit/Transformer.DSS
New "Transformer.sub1" phases=3 windings=2 buses=[sourcebus, ckt7.1.2.3.0, ] conns=[delta, wye, ] kVs=[115, 12.47, ] kVAs=[41700, 41700, ] XHL=0.635 buses=[sourcebus, ckt7.1.2.3.0, ] conns=[delta, wye, ] kVs=[115, 12.47, ] kVAs=[41700, 41700, ] taps=[1, 1, ] wdg=1 %R=0.0056 RdcOhms=0.01509616 wdg=2 %R=0.0008 RdcOhms=8.452487E-006
New "Transformer.sub2" phases=3 windings=2 buses=[sourcebus, ckt7.1.2.3.0, ] conns=[delta, wye, ] kVs=[115, 12.47, ] kVAs=[41700, 41700, ] XHL=0.635 buses=[sourcebus, ckt7.1.2.3.0, ] conns=[delta, wye, ] kVs=[115, 12.47, ] kVAs=[41700, 41700, ] taps=[1, 1, ] wdg=1 %R=0.0056 RdcOhms=0.01509616 wdg=2 %R=0.0008 RdcOhms=8.452487E-006
New "Transformer.sub3" phases=3 windings=2 buses=[sourcebus, ckt7.1.2.3.0, ] conns=[delta, wye, ] kVs=[115, 12.47, ] kVAs=[41700, 41700, ] XHL=0.635 buses=[sourcebus, ckt7.1.2.3.0, ] conns=[delta, wye, ] kVs=[115, 12.47, ] kVAs=[41700, 41700, ] taps=[1, 1, ] wdg=1 %R=0.0056 RdcOhms=0.01509616 wdg=2 %R=0.0008 RdcOhms=8.452487E-006
New "Transformer.0862099_xfmr_abc" phases=3 windings=2 %imag=1 %loadloss=1.02 %noloadloss=0.213 XHL=4.07 buses=[157347.1.2.3, x_0862099.1.2.3, ] conns=[delta, wye, ] kVs=[12.47, 0.208, ] kVAs=[150, 150, ] taps=[1, 1, ] wdg=1 %R=0.51 RdcOhms=4.493976 wdg=2 %R=0.51 RdcOhms=0.0004167765
New "Transformer.1000663_xfmr_a" phases=1 buses=[165442.1, x_1000663.1, ] conns=[wye, wye, ] kVs=[7.199561, 0.24, ] kVAs=[25, 25, ] taps=[1, 1, ] wdg=1 %R=0.55 RdcOhms=9.692898 wdg=2 %R=0.55 RdcOhms=0.0107712 %imag=1.3 %loadloss=1.1 %noloadloss=0.47 XHL=1.1
New "Transformer.1000663_xfmr_b" phases=1 buses=[165442.2, x_1000663.2, ] conns=[wye, wye, ] kVs=[7.199561, 0.24, ] kVAs=[25, 25, ] taps=[1, 1, ] wdg=1 %R=0.55 RdcOhms=9.692898 wdg=2 %R=0.55 RdcOhms=0.0107712 %imag=1.3 %loadloss=1.1 %noloadloss=0.47 XHL=1.1
New "Transformer.1000663_xfmr_c" phases=1 buses=[165442.3, x_1000663.3, ] conns=[wye, wye, ] kVs=[7.199561, 0.24, ] kVAs=[25, 25, ] taps=[1, 1, ] wdg=1 %R=0.55 RdcOhms=9.692898 wdg=2 %R=0.55 RdcOhms=0.0107712 %imag=1.3 %loadloss=1.1 %noloadloss=0.47 XHL=1.1
New "Transformer.1000252_xfmr_b" phases=1 buses=[165448.2, x_1000252.2, ] conns=[wye, wye, ] kVs=[7.199561, 0.24, ] kVAs=[37, 37, ] taps=[1, 1, ] wdg=1 %R=0.5 RdcOhms=5.953869 wdg=2 %R=0.5 RdcOhms=0.006616216 %imag=1.1 %loadloss=1 %noloadloss=0.44 XHL=1.3
New "Transformer.1001652_xfmr_a" phases=1 buses=[165450.1, x_1001652.1, ] conns=[wye, wye, ] kVs=[7.199561, 0.24, ] kVAs=[25, 25, ] taps=[1, 1, ] wdg=1 %R=0.55 RdcOhms=9.692898 wdg=2 %R=0.55 RdcOhms=0.0107712 %imag=1.3 %loadloss=1.1 %noloadloss=0.47 XHL=1.1
New "Transformer.1001746_xfmr_abc" phases=3 windings=2 %imag=1 %loadloss=0.698 %noloadloss=0.188 XHL=4.14 buses=[165452.1.2.3, x_1001746.1.2.3, ] conns=[delta, wye, ] kVs=[12.47, 0.208, ] kVAs=[300, 300, ] taps=[1, 1, ] wdg=1 %R=0.349 RdcOhms=1.537645 wdg=2 %R=0.349 RdcOhms=0.000142603
New "Transformer.1000502_xfmr_b" phases=1 buses=[165453.2, x_1000502.2, ] conns=[wye, wye, ] kVs=[7.199561, 0.24, ] kVAs=[75, 75, ] taps=[1, 1, ] wdg=1 %R=0.4 RdcOhms=2.349794 wdg=2 %R=0.4 RdcOhms=0.0026112 %imag=1.3 %loadloss=0.8 %noloadloss=0.38 XHL=1.2
New "Transformer.1000824_xfmr_a" phases=1 buses=[165454.1, x_1000824.1, ] conns=[wye, wye, ] kVs=[7.199561, 0.24, ] kVAs=[25, 25, ] taps=[1, 1, ] wdg=1 %R=0.55 RdcOhms=9.692898 wdg=2 %R=0.55 RdcOhms=0.0107712 %imag=1.3 %loadloss=1.1 %noloadloss=0.47 XHL=1.1
New "Transformer.1000824_xfmr_b" phases=1 buses=[165454.2, x_1000824.2, ] conns=[wye, wye, ] kVs=[7.199561, 0.24, ] kVAs=[25, 25, ] taps=[1, 1, ] wdg=1 %R=0.55 RdcOhms=9.692898 wdg=2 %R=0.55 RdcOhms=0.0107712 %imag=1.3 %loadloss=1.1 %noloadloss=0.47 XHL=1.1
New "Transformer.1000824_xfmr_c" phases=1 buses=[165454.3, x_1000824.3, ] conns=[wye, wye, ] kVs=[7.199561, 0.24, ] kVAs=[25, 25, ] taps=[1, 1, ] wdg=1 %R=0.55 RdcOhms=9.692898 wdg=2 %R=0.55 RdcOhms=0.0107712 %imag=1.3 %loadloss=1.1 %noloadloss=0.47 XHL=1.1
New "Transformer.1001745_xfmr_abc" phases=3 windings=2 %imag=1 %loadloss=0.698 %noloadloss=0.188 XHL=4.14 buses=[165457.1.2.3, x_1001745.1.2.3, ] conns=[delta, wye, ] kVs=[12.47, 0.208, ] kVAs=[300, 300, ] taps=[1, 1, ] wdg=1 %R=0.349 RdcOhms=1.537645 wdg=2 %R=0.349 RdcOhms=0.000142603
New "Transformer.1001329_xfmr_abc" phases=3 windings=2 %imag=1 %loadloss=1.02 %noloadloss=0.213 XHL=4.07 buses=[165460.1.2.3, x_1001329.1.2.3, ] conns=[delta, wye, ] kVs=[12.47, 0.208, ] kVAs=[150, 150, ] taps=[1, 1, ] wdg=1 %R=0.51 RdcOhms=4.493976 wdg=2 %R=0.51 RdcOhms=0.0004167765
New "Transformer.1001359_xfmr_abc" phases=3 windings=2 %imag=1 %loadloss=1.1 %noloadloss=0.24 XHL=5.6 buses=[165462.1.2.3, x_1001359.1.2.3, ] conns=[delta, wye, ] kVs=[12.47, 0.208, ] kVAs=[500.01, 500.01, ] taps=[1, 1, ] wdg=1 %R=0.55 RdcOhms=1.453904 wdg=2 %R=0.55 RdcOhms=0.0001348368
...